<?xml version="1.0" encoding="UTF-8"?>

<!-- generated on 2026-02-26T23:52:12.751293+06:00 by Eclipse SUMO netedit 1.26.0
-->

<routes xmlns:xsi="http://www.w3.org/2001/XMLSchema-instance" xsi:noNamespaceSchemaLocation="http://sumo.dlr.de/xsd/routes_file.xsd">
    <!-- Routes -->
    <route id="bus_r0" edges="-186475564#4 -186475564#3 -186475564#2 -186475564#1 -186475564#0 -51095930#2 -51095930#1 -51095930#0 620932850#0 620932850#1 620932850#2 620932850#3 277523407#0 277523407#1 50831915#9 50831915#10 25486114#0 25486114#1" color="red"/>
    <route id="bus_r2" edges="50449361#0 50449361#1 50449361#2 50449361#3 -622102030#3 -622102030#2 -622102030#1 130503625#0 130503625#1 53369130#1 53369130#2 622102030#2 622102030#3 50449361#4 50449361#5 25684557#0 25684557#1 25684557#2 -25684551#10 -25684551#9 -25684551#8 -25684551#7 -25684551#6 -25684551#5 -25684551#4 622102031#4 622102031#5 622102031#6 622102031#7 51095930#0 51095930#1 51095930#2 186475564#0 186475564#1 186475564#2 -477271462#5 -477271462#4 -477271462#3 -477271462#2 -477271462#1 -477271462#0 49830666#0 49830666#1 49830666#2 49830666#3 49830666#4 -88247764#4 -88247764#3 -88247764#2 -88247764#1 -88247764#0 192981424#5 192981424#6 192981424#7 -52152425#2 -52152425#1 -52152425#0" color="yellow"/>
    <route id="bus_r3" edges="-51095934#15 -51095934#14 -51095934#13 -51095934#12 -51095934#11 -51095934#10 -51095934#9 -51095934#8 -51095934#7 -51095934#6 -51095934#5 -51095934#4 -51095934#3 -51095934#2 -51095934#1 -51095934#0 -829563410#2 -829563410#1 -829563410#0 -620932850#3 -620932850#2 -620932850#1 -620932850#0 -622102031#7 -622102031#6 -622102031#5 -622102031#4 -622102031#3 -622102031#2 -622102031#1 -622102031#0 -50449361#3 -50449361#2 -50449361#1 -64973297#1 -64973297#0 25684551#1 54985260#0 -25486115#0" color="cyan"/>
    <route id="bus_r4" edges="580760138#0 580760138#1 580760138#2 580760138#3 580760138#4 580760138#5 580760138#6 51095930#0 51095930#1 51095930#2 -88247764#10 -88247764#9 -88247764#8 -88247764#7 -88247764#6 -88247764#5 49830666#5 49830666#6 49830666#7 829563410#0 829563410#1 829563410#2 51095934#0 51095934#1 51095934#2 51095934#3 51095934#4 51095934#5 51095934#6 25504350#0 25504350#1 25504350#2 1124346622#0 1124346622#1 1124346622#2" color="white"/>
    <route id="bus_r5" edges="-54985260#16 -54985260#15 -54985260#14 -54985260#13 -54985260#12 -54985260#11 -54985260#10 -54985260#9 -54985260#8 -54985260#7 -54985260#6 -54985260#5 -25486114#0 -50831915#10 -50831915#9 -50831915#8 -50831915#7 -53103893#1 -53103893#0 -829563410#1 -829563410#0 -620932850#3 -620932850#2 -620932850#1 -620932850#0 -622102031#7 -622102031#6 -622102031#5 -622102031#4 -622102031#3 -622102031#2 -622102031#1 -622102031#0 -50449361#3 -50449361#2 -50449361#1 -50449361#0" color="black"/>
    <route id="bus_r6" edges="170083666#0 170083666#1 170083666#2 192981425#0 192981425#1 192981425#2 192981424#0 192981424#1 192981424#2 192981424#3 192981424#4 192981424#5 192981424#6 192981424#7 477271454 192987238#0 192987238#1 192987238#2 192987238#3 192987238#4 477271462#0 477271462#1 477271462#2 477271462#3 477271462#4 477271462#5 -186475564#2 -186475564#1 -186475564#0 -51095930#2 -51095930#1 -51095930#0 -580760138#6 -580760138#5 -580760138#4 -580760138#3 -580760138#2 -580760138#1 -580760138#0" color="green"/>

    <flow id="bus_night_r0" type="bus" route="bus_r0" begin="0" end="21600" period="20"/>
    <flow id="bus_morning_r0" type="bus" route="bus_r0" begin="21600" end="32400" period="20"/>
    <flow id="bus_day_r0" type="bus" route="bus_r0" begin="36000" end="57600" period="20"/>
    <flow id="bus_evening_r0" type="bus" route="bus_r0" begin="57600" end="64800" period="300"/>

    <flow id="bus_night_r2" type="bus" route="bus_r2" begin="0" end="21600" period="20"/>
    <flow id="bus_morning_r2" type="bus" route="bus_r2" begin="21600" end="32400" period="20"/>
    <flow id="bus_day_r2" type="bus" route="bus_r2" begin="36000" end="57600" period="20"/>
    <flow id="bus_evening_r2" type="bus" route="bus_r2" begin="57600" end="64800" period="300"/>

    <flow id="bus_night_r3" type="bus" route="bus_r3" begin="0" end="21600" period="20"/>
    <flow id="bus_morning_r3" type="bus" route="bus_r3" begin="21600" end="32400" period="20"/>
    <flow id="bus_day_r3" type="bus" route="bus_r3" begin="36000" end="57600" period="20"/>
    <flow id="bus_evening_r3" type="bus" route="bus_r3" begin="57600" end="64800" period="300"/>

    <flow id="bus_night_r4" type="bus" route="bus_r4" begin="0" end="21600" period="20"/>
    <flow id="bus_morning_r4" type="bus" route="bus_r4" begin="21600" end="32400" period="20"/>
    <flow id="bus_day_r4" type="bus" route="bus_r4" begin="36000" end="57600" period="20"/>
    <flow id="bus_evening_r4" type="bus" route="bus_r4" begin="57600" end="64800" period="300"/>

    <flow id="bus_night_r5" type="bus" route="bus_r5" begin="0" end="21600" period="20"/>
    <flow id="bus_morning_r5" type="bus" route="bus_r5" begin="21600" end="32400" period="20"/>
    <flow id="bus_day_r5" type="bus" route="bus_r5" begin="36000" end="57600" period="20"/>
    <flow id="bus_evening_r5" type="bus" route="bus_r5" begin="57600" end="64800" period="300"/>

    <flow id="bus_night_r6" type="bus" route="bus_r6" begin="0" end="21600" period="20"/>
    <flow id="bus_morning_r6" type="bus" route="bus_r6" begin="21600" end="32400" period="20"/>
    <flow id="bus_day_r6" type="bus" route="bus_r6" begin="36000" end="57600" period="20"/>
    <flow id="bus_evening_r6" type="bus" route="bus_r6" begin="57600" end="64800" period="300"/>
</routes>
