<?xml version="1.0" encoding="UTF-8"?>

<!-- generated on 2026-02-27T00:32:41.438143+06:00 by Eclipse SUMO netedit 1.26.0
-->

<routes xmlns:xsi="http://www.w3.org/2001/XMLSchema-instance" xsi:noNamespaceSchemaLocation="http://sumo.dlr.de/xsd/routes_file.xsd">
    <!-- Routes -->
    <route id="bus_1" edges="580760138#0 580760138#1 580760138#2 580760138#3 580760138#4 580760138#5 580760138#6 51095930#0 51095930#1 51095930#2 186475564#0 186475564#1 186475564#2 -25684557#5 -25684557#4 -25684557#3 -25684557#2 -25684557#1 -25684557#0 50449361#6 50449361#7" color="red"/>
    <route id="bus_2" edges="622102030#0 622102030#1 622102030#2 622102030#3 622102031#0 622102031#1 622102031#2 622102031#3 622102031#4 622102031#5 622102031#6 622102031#7 620932850#0 620932850#1 620932850#2 620932850#3 829563410#0 829563410#1 829563410#2 51095934#0 51095934#1 51095934#2 51095934#3 51095934#4 51095934#5 51095934#6 51095934#7 51095934#8 51095934#9 51095934#10 51095934#11 51095934#12 51095934#13 51095934#14 51095934#15" color="green"/>
    <route id="bus_3" edges="-51095934#15 -51095934#14 -51095934#13 -51095934#12 -51095934#11 -51095934#10 -51095934#9 -51095934#8 -51095934#7 -51095934#6 -51095934#5 -51095934#4 -51095934#3 -51095934#2 -51095934#1 -51095934#0 -829563410#2 -829563410#1 -829563410#0 -620932850#3 -620932850#2 -620932850#1 -620932850#0 -622102031#7 -622102031#6 -622102031#5 -622102031#4 -622102031#3 -622102031#2 -622102031#1 -622102031#0 -622102030#3 -622102030#2 -622102030#1 -622102030#0" color="blue"/>
    <route id="bus_4" edges="52152425#0 52152425#1 52152425#2 477271454 192987238#0 192987238#1 192987238#2 192987238#3 192987238#4 477271462#0 477271462#1 477271462#2 477271462#3 477271462#4 477271462#5 -186475564#2 -186475564#1 -186475564#0 -51095930#2 -51095930#1 -51095930#0 620932850#0 620932850#1 620932850#2 620932850#3 829563410#0 829563410#1 829563410#2 51095934#0 51095934#1 51095934#2 51095934#3 51095934#4 51095934#5 51095934#6 51095934#7 51095934#8 51095934#9 51095934#10 51095934#11 51095934#12 51095934#13 51095934#14 51095934#15" color="yellow"/>
    <route id="bus_r0" edges="-50449361#7 -50449361#6 25684557#0 25684557#1 25684557#2 25684557#3 25684557#4 25684557#5 -186475564#2 -186475564#1 -186475564#0 -51095930#2 -51095930#1 -51095930#0 -580760138#6 -580760138#5 -580760138#4 -580760138#3 -580760138#2 -580760138#1 -580760138#0" color="white"/>
    <route id="bus_r5" edges="170083666#0 170083666#1 170083666#2 192981425#0 192981425#1 192981425#2 -829563410#2 -829563410#1 -829563410#0 -620932850#3 -620932850#2 -620932850#1 -620932850#0 -622102031#7 -622102031#6 -622102031#5 -622102031#4 -622102031#3 -622102031#2 -622102031#1 -622102031#0 50449361#4 50449361#5 50449361#6 50449361#7" color="cyan"/>

    <flow id="bus_night_r5" type="bus" route="bus_r5" begin="0" end="21600" period="20"/>
    <flow id="bus_morning_r5" type="bus" route="bus_r5" begin="21600" end="32400" period="20"/>
    <flow id="bus_day_r5" type="bus" route="bus_r5" begin="36000" end="57600" period="20"/>
    <flow id="bus_evening_r5" type="bus" route="bus_r5" begin="57600" end="64800" period="300"/>

    <flow id="bus_night_r0" type="bus" route="bus_r0" begin="1" end="21600" period="20"/>
    <flow id="bus_morning_r0" type="bus" route="bus_r0" begin="21600" end="32400" period="20"/>
    <flow id="bus_day_r0" type="bus" route="bus_r0" begin="36000" end="57600" period="20"/>
    <flow id="bus_evening_r0" type="bus" route="bus_r0" begin="57600" end="64800" period="300"/>

    <flow id="bus_night_1" type="bus" route="bus_1" begin="2" end="21600" period="20"/>
    <flow id="bus_morning_1" type="bus" route="bus_1" begin="21600" end="32400" period="20"/>
    <flow id="bus_day_1" type="bus" route="bus_1" begin="36000" end="57600" period="20"/>
    <flow id="bus_evening_1" type="bus" route="bus_1" begin="57600" end="64800" period="300"/>

    <flow id="bus_night_2" type="bus" route="bus_r2" begin="3" end="21600" period="20"/>
    <flow id="bus_morning_2" type="bus" route="bus_2" begin="21600" end="32400" period="20"/>
    <flow id="bus_day_2" type="bus" route="bus_2" begin="36000" end="57600" period="20"/>
    <flow id="bus_evening_2" type="bus" route="bus_2" begin="57600" end="64800" period="300"/>

    <flow id="bus_night_3" type="bus" route="bus_3" begin="4" end="21600" period="20"/>
    <flow id="bus_morning_3" type="bus" route="bus_3" begin="21600" end="32400" period="20"/>
    <flow id="bus_day_3" type="bus" route="bus_3" begin="36000" end="57600" period="20"/>
    <flow id="bus_evening_3" type="bus" route="bus_3" begin="57600" end="64800" period="300"/>

    <flow id="bus_night_4" type="bus" route="bus_4" begin="5" end="21600" period="20"/>
    <flow id="bus_morning_4" type="bus" route="bus_4" begin="21600" end="32400" period="20"/>
    <flow id="bus_day_4" type="bus" route="bus_4" begin="36000" end="57600" period="20"/>
    <flow id="bus_evening_4" type="bus" route="bus_4" begin="57600" end="64800" period="300"/>
</routes>
