<configuration>
  <input>
    <net-file value="../networks/city_001.net.xml"/>
    <route-files value="vehicle_types.rou.xml,
                        night.rou.xml,
                        morning.rou.xml,
                        day.rou.xml,
                        evening.rou.xml,
                        midnight.rou.xml,
                        bus_routes.rou.xml"/>
  </input>
  <time>
    <begin value="0"/>
    <end value="86400"/>
  </time>
</configuration>
